Circuit: * C:\Gits\CurrentScaler\spice\Draft1.asc

WARNING: Node NC_03 is floating.
WARNING: Node NC_06 is floating.

WARNING: Less than two connections to node NC_01.  This node is used by Q1.
WARNING: Less than two connections to node NC_02.  This node is used by Q1.
WARNING: Less than two connections to node NC_03.  This node is used by Q1.
WARNING: Less than two connections to node NC_04.  This node is used by Q2.
WARNING: Less than two connections to node NC_05.  This node is used by Q2.
WARNING: Less than two connections to node NC_06.  This node is used by Q2.

Date: Sat Jun 01 19:41:47 2019
Total elapsed time: 0.073 seconds.

tnom = 27
temp = 27
method = trap
totiter = 66
traniter = 0
tranpoints = 0
accept = 0
rejected = 0
matrix size = 28
fillins = 1
solver = Normal
Matrix Compiler1: 1.69 KB object code size
Matrix Compiler2: 2.15 KB object code size
