Circuit: * C:\Gits\CurrentScaler\spice\Draft3.asc


Date: Sun Aug 25 20:47:47 2019
Total elapsed time: 0.196 seconds.

tnom = 27
temp = 27
method = trap
totiter = 271
traniter = 0
tranpoints = 0
accept = 0
rejected = 0
matrix size = 26
fillins = 20
solver = Normal
Matrix Compiler1: 3.50 KB object code size  1.1/0.5/[0.2]
Matrix Compiler2: 2.96 KB object code size  0.3/0.5/[0.2]

