Circuit: * C:\Gits\CurrentScaler\spice\Draft2.asc


Date: Fri May 10 18:11:53 2019
Total elapsed time: 0.066 seconds.

tnom = 27
temp = 27
method = trap
totiter = 0
traniter = 0
tranpoints = 0
accept = 0
rejected = 0
matrix size = 5
fillins = 0
solver = Normal

